lv-network-models/network_18/Feeder_3/Loads.txt
New Load.LOAD1 Phases=1 Bus1=225.3 kV=0.23 kW=1 PF=0.95 Daily=Shape_1
New Load.LOAD2 Phases=1 Bus1=254.3 kV=0.23 kW=1 PF=0.95 Daily=Shape_2
New Load.LOAD3 Phases=1 Bus1=261.1 kV=0.23 kW=1 PF=0.95 Daily=Shape_3
New Load.LOAD4 Phases=1 Bus1=328.2 kV=0.23 kW=1 PF=0.95 Daily=Shape_4
New Load.LOAD5 Phases=1 Bus1=340.2 kV=0.23 kW=1 PF=0.95 Daily=Shape_5
New Load.LOAD6 Phases=1 Bus1=361.2 kV=0.23 kW=1 PF=0.95 Daily=Shape_6
New Load.LOAD7 Phases=1 Bus1=424.2 kV=0.23 kW=1 PF=0.95 Daily=Shape_7
New Load.LOAD8 Phases=1 Bus1=426.3 kV=0.23 kW=1 PF=0.95 Daily=Shape_8
New Load.LOAD9 Phases=1 Bus1=560.3 kV=0.23 kW=1 PF=0.95 Daily=Shape_9
New Load.LOAD10 Phases=1 Bus1=595.2 kV=0.23 kW=1 PF=0.95 Daily=Shape_10
New Load.LOAD11 Phases=1 Bus1=601.1 kV=0.23 kW=1 PF=0.95 Daily=Shape_11
New Load.LOAD12 Phases=1 Bus1=614.1 kV=0.23 kW=1 PF=0.95 Daily=Shape_12
New Load.LOAD13 Phases=1 Bus1=631.3 kV=0.23 kW=1 PF=0.95 Daily=Shape_13
New Load.LOAD14 Phases=1 Bus1=642.3 kV=0.23 kW=1 PF=0.95 Daily=Shape_14
New Load.LOAD15 Phases=1 Bus1=648.2 kV=0.23 kW=1 PF=0.95 Daily=Shape_15
New Load.LOAD16 Phases=1 Bus1=690.3 kV=0.23 kW=1 PF=0.95 Daily=Shape_16
New Load.LOAD17 Phases=1 Bus1=701.1 kV=0.23 kW=1 PF=0.95 Daily=Shape_17
New Load.LOAD18 Phases=1 Bus1=713.1 kV=0.23 kW=1 PF=0.95 Daily=Shape_18
New Load.LOAD19 Phases=1 Bus1=719.1 kV=0.23 kW=1 PF=0.95 Daily=Shape_19
New Load.LOAD20 Phases=1 Bus1=722.2 kV=0.23 kW=1 PF=0.95 Daily=Shape_20
New Load.LOAD21 Phases=1 Bus1=738.1 kV=0.23 kW=1 PF=0.95 Daily=Shape_21
New Load.LOAD22 Phases=1 Bus1=751.2 kV=0.23 kW=1 PF=0.95 Daily=Shape_22
New Load.LOAD23 Phases=1 Bus1=785.3 kV=0.23 kW=1 PF=0.95 Daily=Shape_23
New Load.LOAD24 Phases=1 Bus1=808.2 kV=0.23 kW=1 PF=0.95 Daily=Shape_24
New Load.LOAD25 Phases=1 Bus1=810.1 kV=0.23 kW=1 PF=0.95 Daily=Shape_25
New Load.LOAD26 Phases=1 Bus1=882.3 kV=0.23 kW=1 PF=0.95 Daily=Shape_26
New Load.LOAD27 Phases=1 Bus1=905.2 kV=0.23 kW=1 PF=0.95 Daily=Shape_27
New Load.LOAD28 Phases=1 Bus1=914.1 kV=0.23 kW=1 PF=0.95 Daily=Shape_28
New Load.LOAD29 Phases=1 Bus1=925.2 kV=0.23 kW=1 PF=0.95 Daily=Shape_29
New Load.LOAD30 Phases=1 Bus1=933.1 kV=0.23 kW=1 PF=0.95 Daily=Shape_30
New Load.LOAD31 Phases=1 Bus1=950.1 kV=0.23 kW=1 PF=0.95 Daily=Shape_31
New Load.LOAD32 Phases=1 Bus1=985.3 kV=0.23 kW=1 PF=0.95 Daily=Shape_32
New Load.LOAD33 Phases=1 Bus1=991.2 kV=0.23 kW=1 PF=0.95 Daily=Shape_33
New Load.LOAD34 Phases=1 Bus1=1001.2 kV=0.23 kW=1 PF=0.95 Daily=Shape_34
New Load.LOAD35 Phases=1 Bus1=1063.3 kV=0.23 kW=1 PF=0.95 Daily=Shape_35
New Load.LOAD36 Phases=1 Bus1=1070.3 kV=0.23 kW=1 PF=0.95 Daily=Shape_36
New Load.LOAD37 Phases=1 Bus1=1078.3 kV=0.23 kW=1 PF=0.95 Daily=Shape_37
New Load.LOAD38 Phases=1 Bus1=1083.2 kV=0.23 kW=1 PF=0.95 Daily=Shape_38
New Load.LOAD39 Phases=1 Bus1=1084.3 kV=0.23 kW=1 PF=0.95 Daily=Shape_39
New Load.LOAD40 Phases=1 Bus1=1086.3 kV=0.23 kW=1 PF=0.95 Daily=Shape_40
New Load.LOAD41 Phases=1 Bus1=1094.3 kV=0.23 kW=1 PF=0.95 Daily=Shape_41
New Load.LOAD42 Phases=1 Bus1=1111.1 kV=0.23 kW=1 PF=0.95 Daily=Shape_42
New Load.LOAD43 Phases=1 Bus1=1188.3 kV=0.23 kW=1 PF=0.95 Daily=Shape_43
New Load.LOAD44 Phases=1 Bus1=1192.3 kV=0.23 kW=1 PF=0.95 Daily=Shape_44
New Load.LOAD45 Phases=1 Bus1=1209.1 kV=0.23 kW=1 PF=0.95 Daily=Shape_45
New Load.LOAD46 Phases=1 Bus1=1350.3 kV=0.23 kW=1 PF=0.95 Daily=Shape_46
New Load.LOAD47 Phases=1 Bus1=1362.2 kV=0.23 kW=1 PF=0.95 Daily=Shape_47
New Load.LOAD48 Phases=1 Bus1=1428.2 kV=0.23 kW=1 PF=0.95 Daily=Shape_48
New Load.LOAD49 Phases=1 Bus1=1452.2 kV=0.23 kW=1 PF=0.95 Daily=Shape_49
New Load.LOAD50 Phases=1 Bus1=1456.1 kV=0.23 kW=1 PF=0.95 Daily=Shape_50
New Load.LOAD51 Phases=1 Bus1=1490.1 kV=0.23 kW=1 PF=0.95 Daily=Shape_51
